Version 4
SHEET 1 2272 772
WIRE 352 -64 16 -64
WIRE 640 -64 352 -64
WIRE -272 64 -464 64
WIRE 16 64 16 -64
WIRE 16 64 -272 64
WIRE 640 64 640 16
WIRE 672 64 640 64
WIRE 704 64 672 64
WIRE -272 128 -272 64
WIRE -192 128 -272 128
WIRE -64 128 -112 128
WIRE 352 128 352 -64
WIRE 352 128 272 128
WIRE -464 144 -464 64
WIRE -272 144 -272 128
WIRE -240 144 -272 144
WIRE -272 176 -272 144
WIRE -240 208 -240 144
WIRE -64 208 -240 208
WIRE 336 208 272 208
WIRE 448 208 336 208
WIRE 768 208 768 64
WIRE 784 208 768 208
WIRE 832 208 784 208
WIRE 944 208 832 208
WIRE 976 208 944 208
WIRE 1088 208 1056 208
WIRE 1216 208 1088 208
WIRE 784 240 784 208
WIRE 1216 240 1216 208
WIRE 944 256 944 208
WIRE 1088 256 1088 208
WIRE 672 272 672 64
WIRE -272 288 -272 256
WIRE -272 288 -416 288
WIRE -112 288 -272 288
WIRE -64 288 -112 288
WIRE 288 288 272 288
WIRE 304 288 288 288
WIRE 384 288 368 288
WIRE -416 336 -416 288
WIRE 384 336 384 288
WIRE -272 352 -272 288
WIRE 448 352 448 208
WIRE 480 352 448 352
WIRE 576 352 544 352
WIRE 624 352 576 352
WIRE 1088 352 1088 336
WIRE 1216 352 1216 320
WIRE 1216 352 1088 352
WIRE -64 368 -112 368
WIRE 320 368 272 368
WIRE 784 368 784 304
WIRE 1088 368 1088 352
WIRE 448 400 448 352
WIRE 480 400 448 400
WIRE 512 400 480 400
WIRE 320 416 320 368
WIRE 320 416 288 416
WIRE 816 416 752 416
WIRE 944 416 944 336
WIRE 944 416 816 416
WIRE 992 416 944 416
WIRE 1088 416 1072 416
WIRE 816 448 816 416
WIRE 944 464 944 416
WIRE 1088 464 1088 416
WIRE -416 480 -416 416
WIRE -112 480 -112 368
WIRE 480 496 480 480
WIRE 576 496 576 448
WIRE 576 496 480 496
WIRE 672 496 672 368
WIRE 672 496 576 496
WIRE 480 512 480 496
WIRE 816 544 816 512
WIRE 944 544 816 544
WIRE 1088 544 944 544
WIRE 944 560 944 544
WIRE 288 576 288 416
WIRE 752 576 752 416
WIRE 752 576 288 576
FLAG -416 480 0
FLAG 384 336 0
FLAG 480 512 0
FLAG 784 368 0
FLAG 832 208 Vo
FLAG 944 560 0
FLAG 1088 368 0
FLAG -112 480 0
FLAG 288 288 ct
FLAG 336 208 swe
FLAG -112 288 vdd
FLAG 320 368 cinv
FLAG -464 208 0
SYMBOL voltage -416 320 R0
WINDOW 123 0 0 Left 0
WINDOW 39 24 132 Left 0
SYMATTR SpiceLine Rser=0.1
SYMATTR InstName V1
SYMATTR Value 12
SYMBOL res -256 272 R180
WINDOW 0 -39 87 Left 0
WINDOW 3 -52 44 Left 0
SYMATTR InstName R1
SYMATTR Value 0.25
SYMBOL cap 304 304 R270
WINDOW 0 32 32 VTop 0
WINDOW 3 0 32 VBottom 0
SYMATTR InstName C2
SYMATTR Value 680p
SYMBOL diode 704 80 R270
WINDOW 0 32 32 VTop 2
WINDOW 3 0 32 VBottom 2
SYMATTR InstName D1
SYMATTR Value RFN2L4S
SYMBOL ind2 624 -80 R0
SYMATTR InstName L1
SYMATTR Value 100µ
SYMATTR SpiceLine Ipk=2 Rser=0.04 Rpar=0 Cpar=0 mfg="Coiltronics" pn="CTX100-2-52"
SYMATTR Type ind
SYMBOL res 928 240 R0
SYMATTR InstName R2
SYMATTR Value 475k
SYMBOL res 928 448 R0
SYMATTR InstName R3
SYMATTR Value 13.7k
SYMBOL load2 1088 256 R0
WINDOW 123 0 0 Left 0
WINDOW 39 0 0 Left 0
SYMATTR InstName I1
SYMATTR Value PWL REPEAT FOREVER (0.0001 0.00001 0.00011 0.025 0.002 0.025 0.002001 0.00001) ENDREPEAT
SYMBOL polcap 768 240 R0
WINDOW 39 24 113 Left 0
WINDOW 40 24 85 Left 0
SYMATTR SpiceLine Rser=0.1
SYMATTR SpiceLine2 IC=0
SYMATTR InstName C3
SYMATTR Value 3.3µ
SYMBOL polcap -480 144 R0
WINDOW 39 24 113 Left 0
WINDOW 40 24 85 Left 0
SYMATTR SpiceLine Rser=0.1
SYMATTR SpiceLine2 IC=25
SYMATTR InstName C1
SYMATTR Value 220µ
SYMBOL mc34063 176 224 R0
SYMATTR InstName U1
SYMBOL res -96 112 R90
WINDOW 0 0 56 VBottom 2
WINDOW 3 32 56 VTop 2
SYMATTR InstName R5
SYMATTR Value 0.01
SYMBOL polcap 800 448 R0
WINDOW 39 24 113 Left 0
WINDOW 40 24 85 Left 0
SYMATTR SpiceLine Rser=0.1
SYMATTR SpiceLine2 IC=0
SYMATTR InstName C4
SYMATTR Value .01µ
SYMBOL res 464 384 R0
SYMATTR InstName R6
SYMATTR Value 1k
SYMBOL nmos 624 272 R0
SYMATTR InstName M1
SYMATTR Value IPB200N25N3
SYMBOL pnp 512 448 M180
SYMATTR InstName Q1
SYMATTR Value D45H11
SYMBOL diode 480 368 R270
WINDOW 0 32 32 VTop 2
WINDOW 3 0 32 VBottom 2
SYMATTR InstName D2
SYMATTR Value 1N914
SYMBOL res 1072 448 R0
SYMATTR InstName R7
SYMATTR Value 680
SYMBOL res 1088 400 R90
WINDOW 0 0 56 VBottom 2
WINDOW 3 32 56 VTop 2
SYMATTR InstName R8
SYMATTR Value 4.02k
SYMBOL res 1200 224 R0
SYMATTR InstName R4
SYMATTR Value 100k
SYMBOL res 1072 192 R90
WINDOW 0 0 56 VBottom 2
WINDOW 3 32 56 VTop 2
SYMATTR InstName R9
SYMATTR Value 0.00001
TEXT -368 -24 Left 0 !.tran 0 50m 1u 100n uic
TEXT -368 -72 Left 0 !.inc MC34063.lib
TEXT -368 16 Left 0 !.options Gmin=1e-9  method=Gear
TEXT -368 -936 Left 0 ;A DC/DC BUCK CONVERTER WITH A MOTOROLA MC34063\nTest circuit and models from Helmut Sennewald    03/14/2004\nThe symbol is from Drew.\n \nDon't remove this copyright notice.\nThe used models are property of ONSEMI and/or  Intusoft(www.intusoft.com).\nThey are from ONsemi's webpage and also from the Intusoft's SPICE (ICAP/4 demo 8.3.10).\nThe links are www.onsemi.com and www.intusoft.com .\n \n \nThree of the models have been modified to LTSPICE syntax.\nThe PSPICE model runs without** any modifiacation in LTSPICE.\nSo we have now three models available for the 34063 and one model for the MC33063. \nThe MC34063 model and the MC34063p model have the closest match, but I don't\nknow if they best match the real part.\n \n    MC34063   (modified* original model included in ICAP/4 demo)\n    MC34063p  (original ONsemi PSPICE model) **\n    MC34063a  (modified* original ONsemi model for ICAP/4 demo)\n    MC33063    (modified* original ONsemi model for ICAP/4 demo) \n \n   *   Means syntax of IF-THEN-ELSE statement adapted to LTSPICE\n       All SPICE command lines starting with a comment "*" have been \n       changed to be compatible with LTSPICE. \n      \n   ** This has been possible without modification, because no SW(itch) statement \n       has been used.  VT and VH of SW are defined differently in PSPICE.\n \nSet the initial conditions of the capacitors C1 and C3 accordingly to your simulation needs.\nThese are the IC=...  properties of the filter capacitors in the schematic.
